data_findsym-STRUC-371
# This file was generated by FINDSYM    
# Harold T. Stokes, Branton J. Campbell, Dorian M. Hatch
# Brigham Young University, Provo, Utah, USA
                                        
data_findsym-output                     
                                        
_symmetry_space_group_name_H-M 'P 1'    
_symmetry_Int_Tables_number 1           
                                        
_cell_length_a       3.66200            
_cell_length_b       4.20800            
_cell_length_c       3.41600            
_cell_angle_alpha   66.55900            
_cell_angle_beta    87.84500            
_cell_angle_gamma  113.28500            
                                        
loop_                                   
_space_group_symop_operation_xyz        
x,y,z                                   
                                        
loop_                                   
_atom_site_label                        
_atom_site_type_symbol                  
_atom_site_fract_x                      
_atom_site_fract_y                      
_atom_site_fract_z                      
_atom_site_occupancy                    
  Al   Al  -0.1966   0.4709   0.1573   1.0000
  Al   Al  -0.0067  -0.0161   0.3814   1.0000
  Al   Al   0.2205   0.4687  -0.3711   1.0000
  Al   Al  -0.4868  -0.0198  -0.0805   1.0000
   H    H  -0.0169  -0.0087  -0.1073   1.0000
   H    H   0.3882   0.2643   0.0225   1.0000
   H    H   0.1727  -0.2354  -0.2641   1.0000
   H    H  -0.3815  -0.3029   0.2899   1.0000
   H    H  -0.3924  -0.2990  -0.2123   1.0000
   H    H   0.3901   0.2215  -0.4923   1.0000
   H    H  -0.2170   0.4577  -0.3399   1.0000
