data_findsym-STRUC-192
# This file was generated by FINDSYM    
# Harold T. Stokes, Branton J. Campbell, Dorian M. Hatch
# Brigham Young University, Provo, Utah, USA
                                        
data_findsym-output                     
                                        
_symmetry_space_group_name_H-M 'R -3 2/m (hexagonal axes)'
_symmetry_Int_Tables_number 166         
                                        
_cell_length_a       3.28944            
_cell_length_b       3.28944            
_cell_length_c       3.65570            
_cell_angle_alpha   90.00000            
_cell_angle_beta    90.00000            
_cell_angle_gamma  120.00000            
                                        
loop_                                   
_space_group_symop_operation_xyz        
x,y,z                                   
-y,x-y,z                                
-x+y,-x,z                               
y,x,-z                                  
-x,-x+y,-z                              
x-y,-y,-z                               
-x,-y,-z                                
y,-x+y,-z                               
x-y,x,-z                                
-y,-x,z                                 
x,x-y,z                                 
-x+y,y,z                                
x+1/3,y+2/3,z+2/3                       
-y+1/3,x-y+2/3,z+2/3                    
-x+y+1/3,-x+2/3,z+2/3                   
y+1/3,x+2/3,-z+2/3                      
-x+1/3,-x+y+2/3,-z+2/3                  
x-y+1/3,-y+2/3,-z+2/3                   
-x+1/3,-y+2/3,-z+2/3                    
y+1/3,-x+y+2/3,-z+2/3                   
x-y+1/3,x+2/3,-z+2/3                    
-y+1/3,-x+2/3,z+2/3                     
x+1/3,x-y+2/3,z+2/3                     
-x+y+1/3,y+2/3,z+2/3                    
x+2/3,y+1/3,z+1/3                       
-y+2/3,x-y+1/3,z+1/3                    
-x+y+2/3,-x+1/3,z+1/3                   
y+2/3,x+1/3,-z+1/3                      
-x+2/3,-x+y+1/3,-z+1/3                  
x-y+2/3,-y+1/3,-z+1/3                   
-x+2/3,-y+1/3,-z+1/3                    
y+2/3,-x+y+1/3,-z+1/3                   
x-y+2/3,x+1/3,-z+1/3                    
-y+2/3,-x+1/3,z+1/3                     
x+2/3,x-y+1/3,z+1/3                     
-x+y+2/3,y+1/3,z+1/3                    
                                        
loop_                                   
_atom_site_label                        
_atom_site_type_symbol                  
_atom_site_fract_x                      
_atom_site_fract_y                      
_atom_site_fract_z                      
_atom_site_occupancy                    
   H    H  -0.4805   0.4805   0.1161   1.0000
   H    H   0.0000   0.0000   0.0000   1.0000
