data_findsym-STRUC-360
# This file was generated by FINDSYM    
# Harold T. Stokes, Branton J. Campbell, Dorian M. Hatch
# Brigham Young University, Provo, Utah, USA
                                        
data_findsym-output                     
                                        
_symmetry_space_group_name_H-M 'P -1'   
_symmetry_Int_Tables_number 2           
                                        
_cell_length_a       4.59900            
_cell_length_b       4.60800            
_cell_length_c       4.57700            
_cell_angle_alpha   80.60600            
_cell_angle_beta   100.00400            
_cell_angle_gamma   80.42500            
                                        
loop_                                   
_space_group_symop_operation_xyz        
x,y,z                                   
-x,-y,-z                                
                                        
loop_                                   
_atom_site_label                        
_atom_site_type_symbol                  
_atom_site_fract_x                      
_atom_site_fract_y                      
_atom_site_fract_z                      
_atom_site_occupancy                    
   Y    Y   0.0000   0.5000   0.5000   1.0000
   Y    Y   0.2676  -0.0676  -0.3736   1.0000
   Y    Y   0.1348   0.2029   0.0599   1.0000
   Y    Y   0.4183  -0.3512   0.2144   1.0000
   H    H  -0.3581  -0.2824  -0.4151   1.0000
   H    H   0.2187  -0.4342  -0.1425   1.0000
   H    H   0.5000   0.0000   0.0000   1.0000
