data_findsym-STRUC-222
# This file was generated by FINDSYM    
# Harold T. Stokes, Branton J. Campbell, Dorian M. Hatch
# Brigham Young University, Provo, Utah, USA
                                        
data_findsym-output                     
                                        
_symmetry_space_group_name_H-M 'I m m 2'
_symmetry_Int_Tables_number 44          
                                        
_cell_length_a       3.66600            
_cell_length_b       2.68800            
_cell_length_c      13.22559            
_cell_angle_alpha   90.00000            
_cell_angle_beta    90.00000            
_cell_angle_gamma   90.00000            
                                        
loop_                                   
_space_group_symop_operation_xyz        
x,y,z                                   
-x,-y,z                                 
-x,y,z                                  
x,-y,z                                  
x+1/2,y+1/2,z+1/2                       
-x+1/2,-y+1/2,z+1/2                     
-x+1/2,y+1/2,z+1/2                      
x+1/2,-y+1/2,z+1/2                      
                                        
loop_                                   
_atom_site_label                        
_atom_site_type_symbol                  
_atom_site_fract_x                      
_atom_site_fract_y                      
_atom_site_fract_z                      
_atom_site_occupancy                    
   Y    Y   0.0000   0.5000  -0.4974   1.0000
  Al   Al   0.0000   0.5000   0.3004   1.0000
  Al   Al   0.0000   0.5000  -0.1163   1.0000
  Al   Al   0.0000   0.5000   0.1033   1.0000
  Al   Al   0.0000   0.5000  -0.2871   1.0000
   H    H   0.0000   0.0000   0.3781   1.0000
   H    H   0.2472   0.0000  -0.2974   1.0000
   H    H  -0.3073   0.0000   0.4882   1.0000
   H    H   0.2336   0.0000   0.1238   1.0000
   H    H  -0.2190   0.0000  -0.1061   1.0000
   H    H   0.0000   0.0000  -0.2018   1.0000
   H    H   0.0000   0.0000  -0.3989   1.0000
   H    H   0.0000   0.0000   0.0217   1.0000
   H    H   0.0000   0.0000   0.2359   1.0000
