data_findsym-STRUC-177
# This file was generated by FINDSYM    
# Harold T. Stokes, Branton J. Campbell, Dorian M. Hatch
# Brigham Young University, Provo, Utah, USA
                                        
data_findsym-output                     
                                        
_symmetry_space_group_name_H-M 'C 1 2/m 1'
_symmetry_Int_Tables_number 12          
                                        
_cell_length_a       8.34550            
_cell_length_b       3.34400            
_cell_length_c       4.10700            
_cell_angle_alpha   90.00000            
_cell_angle_beta   116.32901            
_cell_angle_gamma   90.00000            
                                        
loop_                                   
_space_group_symop_operation_xyz        
x,y,z                                   
-x,y,-z                                 
-x,-y,-z                                
x,-y,z                                  
x+1/2,y+1/2,z                           
-x+1/2,y+1/2,-z                         
-x+1/2,-y+1/2,-z                        
x+1/2,-y+1/2,z                          
                                        
loop_                                   
_atom_site_label                        
_atom_site_type_symbol                  
_atom_site_fract_x                      
_atom_site_fract_y                      
_atom_site_fract_z                      
_atom_site_occupancy                    
   Y    Y   0.0000   0.0000   0.5000   1.0000
  Al   Al  -0.2329   0.0000  -0.2589   1.0000
  Al   Al   0.0000   0.5000   0.0000   1.0000
   H    H  -0.1450   0.2689   0.0923   1.0000
   H    H   0.2539   0.0000  -0.3247   1.0000
   H    H  -0.4283   0.0000   0.4220   1.0000
   H    H   0.0000   0.0000   0.0000   1.0000
