data_findsym-STRUC-189
# This file was generated by FINDSYM    
# Harold T. Stokes, Branton J. Campbell, Dorian M. Hatch
# Brigham Young University, Provo, Utah, USA
                                        
data_findsym-output                     
                                        
_symmetry_space_group_name_H-M 'P 63/m 2/m 2/c'
_symmetry_Int_Tables_number 194         
                                        
_cell_length_a       2.75950            
_cell_length_b       2.75950            
_cell_length_c       5.32200            
_cell_angle_alpha   90.00000            
_cell_angle_beta    90.00000            
_cell_angle_gamma  120.00000            
                                        
loop_                                   
_space_group_symop_operation_xyz        
x,y,z                                   
x-y,x,z+1/2                             
-y,x-y,z                                
-x,-y,z+1/2                             
-x+y,-x,z                               
y,-x+y,z+1/2                            
x-y,-y,-z                               
x,x-y,-z+1/2                            
y,x,-z                                  
-x+y,y,-z+1/2                           
-x,-x+y,-z                              
-y,-x,-z+1/2                            
-x,-y,-z                                
-x+y,-x,-z+1/2                          
y,-x+y,-z                               
x,y,-z+1/2                              
x-y,x,-z                                
-y,x-y,-z+1/2                           
-x+y,y,z                                
-x,-x+y,z+1/2                           
-y,-x,z                                 
x-y,-y,z+1/2                            
x,x-y,z                                 
y,x,z+1/2                               
                                        
loop_                                   
_atom_site_label                        
_atom_site_type_symbol                  
_atom_site_fract_x                      
_atom_site_fract_y                      
_atom_site_fract_z                      
_atom_site_occupancy                    
   Y    Y   0.3333   0.6667   0.7500   1.0000
   H    H   0.0000   0.0000   0.0000   1.0000
   H    H   0.3333   0.6667   0.0832   1.0000
