data_findsym-STRUC-62
# This file was generated by FINDSYM    
# Harold T. Stokes, Branton J. Campbell, Dorian M. Hatch
# Brigham Young University, Provo, Utah, USA
                                        
data_findsym-output                     
                                        
_symmetry_space_group_name_H-M 'R 3 (hexagonal axes)'
_symmetry_Int_Tables_number 146         
                                        
_cell_length_a       6.56570            
_cell_length_b       6.56570            
_cell_length_c       5.83587            
_cell_angle_alpha   90.00000            
_cell_angle_beta    90.00000            
_cell_angle_gamma  120.00000            
                                        
loop_                                   
_space_group_symop_operation_xyz        
x,y,z                                   
-y,x-y,z                                
-x+y,-x,z                               
x+1/3,y+2/3,z+2/3                       
-y+1/3,x-y+2/3,z+2/3                    
-x+y+1/3,-x+2/3,z+2/3                   
x+2/3,y+1/3,z+1/3                       
-y+2/3,x-y+1/3,z+1/3                    
-x+y+2/3,-x+1/3,z+1/3                   
                                        
loop_                                   
_atom_site_label                        
_atom_site_type_symbol                  
_atom_site_fract_x                      
_atom_site_fract_y                      
_atom_site_fract_z                      
_atom_site_occupancy                    
  Al   Al   0.4613   0.3637   0.1160   1.0000
  Al   Al   0.0550   0.2293   0.1254   1.0000
  Al   Al   0.0000   0.0000   0.4825   1.0000
   H    H  -0.1240   0.2999   0.1980   1.0000
   H    H   0.3832  -0.0878   0.0605   1.0000
   H    H  -0.1782   0.0445   0.2883   1.0000
   H    H   0.0000   0.0000  -0.0311   1.0000
