data_findsym-STRUC-221
# This file was generated by FINDSYM    
# Harold T. Stokes, Branton J. Campbell, Dorian M. Hatch
# Brigham Young University, Provo, Utah, USA
                                        
data_findsym-output                     
                                        
_symmetry_space_group_name_H-M 'P 1'    
_symmetry_Int_Tables_number 1           
                                        
_cell_length_a       4.55200            
_cell_length_b       3.30200            
_cell_length_c       4.15500            
_cell_angle_alpha  112.58900            
_cell_angle_beta   108.93700            
_cell_angle_gamma   70.15000            
                                        
loop_                                   
_space_group_symop_operation_xyz        
x,y,z                                   
                                        
loop_                                   
_atom_site_label                        
_atom_site_type_symbol                  
_atom_site_fract_x                      
_atom_site_fract_y                      
_atom_site_fract_z                      
_atom_site_occupancy                    
   Y    Y   0.3513  -0.3973  -0.3589   1.0000
  Al   Al   0.0739  -0.0057   0.1894   1.0000
  Al   Al  -0.0789   0.3284  -0.2587   1.0000
  Al   Al  -0.3221  -0.2354   0.2826   1.0000
   H    H  -0.3349   0.3014   0.3708   1.0000
   H    H  -0.2862  -0.1627  -0.0561   1.0000
   H    H   0.3769   0.1301   0.1526   1.0000
   H    H  -0.0239   0.4695   0.4595   1.0000
   H    H  -0.2912   0.2814  -0.0121   1.0000
   H    H  -0.0241  -0.1543  -0.2154   1.0000
   H    H  -0.4199  -0.0057  -0.3585   1.0000
   H    H   0.0681   0.4888   0.1532   1.0000
   H    H   0.3791  -0.4442   0.1522   1.0000
   H    H   0.3009   0.2230  -0.1590   1.0000
