data_findsym-STRUC-44
# This file was generated by FINDSYM    
# Harold T. Stokes, Branton J. Campbell, Dorian M. Hatch
# Brigham Young University, Provo, Utah, USA
                                        
data_findsym-output                     
                                        
_symmetry_space_group_name_H-M 'P 1'    
_symmetry_Int_Tables_number 1           
                                        
_cell_length_a       4.84100            
_cell_length_b       3.31400            
_cell_length_c       4.11600            
_cell_angle_alpha  102.31100            
_cell_angle_beta   113.24300            
_cell_angle_gamma   71.83700            
                                        
loop_                                   
_space_group_symop_operation_xyz        
x,y,z                                   
                                        
loop_                                   
_atom_site_label                        
_atom_site_type_symbol                  
_atom_site_fract_x                      
_atom_site_fract_y                      
_atom_site_fract_z                      
_atom_site_occupancy                    
   Y    Y  -0.3048  -0.1830   0.3130   1.0000
   Y    Y   0.3247   0.3201  -0.3053   1.0000
  Al   Al  -0.0049   0.0843  -0.0074   1.0000
   H    H   0.4201  -0.1752  -0.1326   1.0000
   H    H  -0.4234   0.3264   0.1532   1.0000
   H    H   0.0498  -0.4070   0.1701   1.0000
   H    H  -0.1116   0.3753  -0.3642   1.0000
   H    H  -0.2872   0.4771  -0.0878   1.0000
   H    H   0.2998   0.2455   0.1798   1.0000
   H    H   0.0938  -0.2442   0.3598   1.0000
   H    H  -0.0292  -0.4560  -0.1748   1.0000
   H    H   0.0813  -0.0878  -0.3456   1.0000
   H    H  -0.0631   0.2256   0.3470   1.0000
   H    H   0.2847  -0.3204   0.0790   1.0000
   H    H  -0.2887  -0.1045  -0.1780   1.0000
   H    H  -0.3554   0.3797  -0.4510   1.0000
   H    H   0.4535  -0.2833  -0.4428   1.0000
   H    H   0.3267  -0.1967   0.3472   1.0000
