data_findsym-STRUC-78
# This file was generated by FINDSYM    
# Harold T. Stokes, Branton J. Campbell, Dorian M. Hatch
# Brigham Young University, Provo, Utah, USA
                                        
data_findsym-output                     
                                        
_symmetry_space_group_name_H-M 'C 1 m 1'
_symmetry_Int_Tables_number 8           
                                        
_cell_length_a       8.16661            
_cell_length_b       2.30700            
_cell_length_c       4.45200            
_cell_angle_alpha   90.00000            
_cell_angle_beta    92.68006            
_cell_angle_gamma   90.00000            
                                        
loop_                                   
_space_group_symop_operation_xyz        
x,y,z                                   
x,-y,z                                  
x+1/2,y+1/2,z                           
x+1/2,-y+1/2,z                          
                                        
loop_                                   
_atom_site_label                        
_atom_site_type_symbol                  
_atom_site_fract_x                      
_atom_site_fract_y                      
_atom_site_fract_z                      
_atom_site_occupancy                    
  Al   Al   0.2833   0.0000  -0.3896   1.0000
  Al   Al   0.0318   0.0000  -0.0996   1.0000
  Al   Al  -0.2163   0.0000   0.1480   1.0000
   H    H  -0.4054   0.0000   0.1075   1.0000
   H    H   0.1844   0.0000   0.3000   1.0000
   H    H   0.4745   0.0000  -0.3186   1.0000
   H    H  -0.1577   0.0000  -0.1754   1.0000
   H    H  -0.1185   0.0000   0.4526   1.0000
   H    H   0.2221   0.0000  -0.0700   1.0000
   H    H   0.4171   0.0000   0.1096   1.0000
   H    H  -0.3500   0.0000  -0.3627   1.0000
   H    H  -0.4772   0.1783   0.3709   1.0000
   H    H   0.0692   0.0000  -0.4652   1.0000
