data_findsym-STRUC-174
# This file was generated by FINDSYM    
# Harold T. Stokes, Branton J. Campbell, Dorian M. Hatch
# Brigham Young University, Provo, Utah, USA
                                        
data_findsym-output                     
                                        
_symmetry_space_group_name_H-M 'P 1 m 1'
_symmetry_Int_Tables_number 6           
                                        
_cell_length_a       3.51900            
_cell_length_b       2.41400            
_cell_length_c       7.22000            
_cell_angle_alpha   90.00000            
_cell_angle_beta    89.29200            
_cell_angle_gamma   90.00000            
                                        
loop_                                   
_space_group_symop_operation_xyz        
x,y,z                                   
x,-y,z                                  
                                        
loop_                                   
_atom_site_label                        
_atom_site_type_symbol                  
_atom_site_fract_x                      
_atom_site_fract_y                      
_atom_site_fract_z                      
_atom_site_occupancy                    
  Al   Al   0.1478   0.5000   0.1576   1.0000
  Al   Al  -0.2989   0.0000  -0.3568   1.0000
  Al   Al  -0.3557   0.0000   0.3122   1.0000
  Al   Al   0.2239   0.5000  -0.1933   1.0000
  Al   Al  -0.2723   0.0000  -0.0295   1.0000
  Al   Al   0.2299   0.5000   0.4874   1.0000
   H    H  -0.0482   0.0000   0.4676   1.0000
   H    H   0.4464   0.5000  -0.0125   1.0000
   H    H  -0.3107   0.5000   0.1497   1.0000
   H    H  -0.2395   0.5000  -0.1933   1.0000
   H    H   0.1695   0.0000  -0.0429   1.0000
   H    H   0.4128   0.0000   0.1291   1.0000
   H    H   0.1759   0.0000  -0.3414   1.0000
   H    H  -0.0839   0.5000   0.3375   1.0000
