data_findsym-STRUC-129
# This file was generated by FINDSYM    
# Harold T. Stokes, Branton J. Campbell, Dorian M. Hatch
# Brigham Young University, Provo, Utah, USA
                                        
data_findsym-output                     
                                        
_symmetry_space_group_name_H-M 'P 1'    
_symmetry_Int_Tables_number 1           
                                        
_cell_length_a       7.59800            
_cell_length_b       5.92300            
_cell_length_c       4.42400            
_cell_angle_alpha   81.92100            
_cell_angle_beta    85.00400            
_cell_angle_gamma  100.16400            
                                        
loop_                                   
_space_group_symop_operation_xyz        
x,y,z                                   
                                        
loop_                                   
_atom_site_label                        
_atom_site_type_symbol                  
_atom_site_fract_x                      
_atom_site_fract_y                      
_atom_site_fract_z                      
_atom_site_occupancy                    
   Y    Y  -0.2279  -0.0219  -0.1739   1.0000
   Y    Y  -0.4118  -0.3575  -0.3994   1.0000
   Y    Y  -0.2824  -0.4934   0.1303   1.0000
   Y    Y  -0.3361   0.0995   0.3192   1.0000
   Y    Y   0.2455   0.0270   0.0781   1.0000
   Y    Y   0.3993   0.3295   0.3354   1.0000
   Y    Y   0.2727   0.4748  -0.1565   1.0000
   Y    Y   0.3722  -0.0943  -0.4043   1.0000
   Y    Y   0.4891  -0.2286   0.0950   1.0000
   Y    Y  -0.4675   0.2347  -0.1826   1.0000
   Y    Y  -0.1390   0.3925  -0.3608   1.0000
   Y    Y   0.1811  -0.4111   0.3422   1.0000
   Y    Y  -0.0115   0.2482   0.1247   1.0000
   Y    Y   0.0399  -0.2793  -0.1481   1.0000
   Y    Y   0.0979   0.1475  -0.3814   1.0000
   Y    Y  -0.0998  -0.1597   0.3207   1.0000
   H    H  -0.1876  -0.3145  -0.2660   1.0000
   H    H  -0.0509  -0.4617   0.2382   1.0000
   H    H   0.1340  -0.1273   0.4582   1.0000
