data_findsym-STRUC-81
# This file was generated by FINDSYM    
# Harold T. Stokes, Branton J. Campbell, Dorian M. Hatch
# Brigham Young University, Provo, Utah, USA
                                        
data_findsym-output                     
                                        
_symmetry_space_group_name_H-M 'P 1'    
_symmetry_Int_Tables_number 1           
                                        
_cell_length_a       2.45000            
_cell_length_b       4.36000            
_cell_length_c       4.39800            
_cell_angle_alpha   62.74200            
_cell_angle_beta    96.34800            
_cell_angle_gamma   99.84000            
                                        
loop_                                   
_space_group_symop_operation_xyz        
x,y,z                                   
                                        
loop_                                   
_atom_site_label                        
_atom_site_type_symbol                  
_atom_site_fract_x                      
_atom_site_fract_y                      
_atom_site_fract_z                      
_atom_site_occupancy                    
  Al   Al   0.3553  -0.2974  -0.4547   1.0000
  Al   Al   0.4794   0.2902   0.3726   1.0000
  Al   Al  -0.0417   0.0160  -0.0462   1.0000
   H    H   0.4684   0.0358   0.1855   1.0000
   H    H  -0.1971  -0.3164   0.3340   1.0000
   H    H  -0.3544  -0.4058  -0.0146   1.0000
   H    H   0.4224  -0.0429  -0.2548   1.0000
   H    H  -0.4167   0.3343  -0.2092   1.0000
   H    H   0.2005   0.4342  -0.0679   1.0000
   H    H  -0.0782  -0.0083   0.4727   1.0000
   H    H   0.0355   0.3272  -0.4286   1.0000
   H    H   0.2601  -0.3374   0.1406   1.0000
   H    H  -0.0630  -0.3256  -0.1797   1.0000
   H    H  -0.0868   0.3245   0.1141   1.0000
