data_findsym-STRUC-361
# This file was generated by FINDSYM    
# Harold T. Stokes, Branton J. Campbell, Dorian M. Hatch
# Brigham Young University, Provo, Utah, USA
                                        
data_findsym-output                     
                                        
_symmetry_space_group_name_H-M 'P -1'   
_symmetry_Int_Tables_number 2           
                                        
_cell_length_a       4.48600            
_cell_length_b       5.20500            
_cell_length_c       5.70600            
_cell_angle_alpha   75.97900            
_cell_angle_beta    83.41200            
_cell_angle_gamma  107.43000            
                                        
loop_                                   
_space_group_symop_operation_xyz        
x,y,z                                   
-x,-y,-z                                
                                        
loop_                                   
_atom_site_label                        
_atom_site_type_symbol                  
_atom_site_fract_x                      
_atom_site_fract_y                      
_atom_site_fract_z                      
_atom_site_occupancy                    
   Y    Y   0.1720  -0.3639   0.1058   1.0000
   Y    Y   0.2272   0.1291   0.0867   1.0000
   Y    Y  -0.3669  -0.0255   0.3007   1.0000
   Y    Y   0.4119  -0.4499  -0.2765   1.0000
   Y    Y  -0.0056  -0.2394  -0.4990   1.0000
   H    H   0.3115  -0.3853   0.4111   1.0000
