data_findsym-STRUC-66
# This file was generated by FINDSYM    
# Harold T. Stokes, Branton J. Campbell, Dorian M. Hatch
# Brigham Young University, Provo, Utah, USA
                                        
data_findsym-output                     
                                        
_symmetry_space_group_name_H-M 'P 1 m 1'
_symmetry_Int_Tables_number 6           
                                        
_cell_length_a       3.57900            
_cell_length_b       2.42500            
_cell_length_c       8.50400            
_cell_angle_alpha   90.00000            
_cell_angle_beta    79.50100            
_cell_angle_gamma   90.00000            
                                        
loop_                                   
_space_group_symop_operation_xyz        
x,y,z                                   
x,-y,z                                  
                                        
loop_                                   
_atom_site_label                        
_atom_site_type_symbol                  
_atom_site_fract_x                      
_atom_site_fract_y                      
_atom_site_fract_z                      
_atom_site_occupancy                    
  Al   Al  -0.4903   0.5000  -0.1925   1.0000
  Al   Al   0.3700   0.5000   0.0856   1.0000
  Al   Al  -0.0219   0.0000  -0.0583   1.0000
  Al   Al   0.2565   0.5000   0.3927   1.0000
  Al   Al  -0.3127   0.0000  -0.4991   1.0000
  Al   Al  -0.1247   0.0000   0.2308   1.0000
  Al   Al   0.1114   0.0000  -0.3337   1.0000
   H    H   0.3127   0.0000   0.2559   1.0000
   H    H  -0.4101   0.5000   0.2404   1.0000
   H    H  -0.0586   0.5000  -0.4346   1.0000
   H    H  -0.4840   0.0000  -0.0656   1.0000
   H    H  -0.0467   0.5000  -0.2087   1.0000
   H    H  -0.0982   0.5000   0.0745   1.0000
   H    H  -0.3650   0.0000   0.0961   1.0000
   H    H  -0.3371   0.0000  -0.3145   1.0000
   H    H   0.4146   0.5000  -0.3884   1.0000
   H    H  -0.1943   0.5000   0.3771   1.0000
