data_findsym-STRUC-239
# This file was generated by FINDSYM    
# Harold T. Stokes, Branton J. Campbell, Dorian M. Hatch
# Brigham Young University, Provo, Utah, USA
                                        
data_findsym-output                     
                                        
_symmetry_space_group_name_H-M 'I 4/m 2/m 2/m'
_symmetry_Int_Tables_number 139         
                                        
_cell_length_a       2.46110            
_cell_length_b       2.46110            
_cell_length_c       3.84860            
_cell_angle_alpha   90.00000            
_cell_angle_beta    90.00000            
_cell_angle_gamma   90.00000            
                                        
loop_                                   
_space_group_symop_operation_xyz        
x,y,z                                   
x,-y,-z                                 
-x,y,-z                                 
-x,-y,z                                 
-y,-x,-z                                
-y,x,z                                  
y,-x,z                                  
y,x,-z                                  
-x,-y,-z                                
-x,y,z                                  
x,-y,z                                  
x,y,-z                                  
y,x,z                                   
y,-x,-z                                 
-y,x,-z                                 
-y,-x,z                                 
x+1/2,y+1/2,z+1/2                       
x+1/2,-y+1/2,-z+1/2                     
-x+1/2,y+1/2,-z+1/2                     
-x+1/2,-y+1/2,z+1/2                     
-y+1/2,-x+1/2,-z+1/2                    
-y+1/2,x+1/2,z+1/2                      
y+1/2,-x+1/2,z+1/2                      
y+1/2,x+1/2,-z+1/2                      
-x+1/2,-y+1/2,-z+1/2                    
-x+1/2,y+1/2,z+1/2                      
x+1/2,-y+1/2,z+1/2                      
x+1/2,y+1/2,-z+1/2                      
y+1/2,x+1/2,z+1/2                       
y+1/2,-x+1/2,-z+1/2                     
-y+1/2,x+1/2,-z+1/2                     
-y+1/2,-x+1/2,z+1/2                     
                                        
loop_                                   
_atom_site_label                        
_atom_site_type_symbol                  
_atom_site_fract_x                      
_atom_site_fract_y                      
_atom_site_fract_z                      
_atom_site_occupancy                    
   Y    Y   0.0000   0.0000   0.5000   1.0000
