data_findsym-STRUC-270
# This file was generated by FINDSYM    
# Harold T. Stokes, Branton J. Campbell, Dorian M. Hatch
# Brigham Young University, Provo, Utah, USA
                                        
data_findsym-output                     
                                        
_symmetry_space_group_name_H-M 'P 1'    
_symmetry_Int_Tables_number 1           
                                        
_cell_length_a       4.54400            
_cell_length_b       4.50800            
_cell_length_c       4.46800            
_cell_angle_alpha   60.37400            
_cell_angle_beta    80.18100            
_cell_angle_gamma   70.74400            
                                        
loop_                                   
_space_group_symop_operation_xyz        
x,y,z                                   
                                        
loop_                                   
_atom_site_label                        
_atom_site_type_symbol                  
_atom_site_fract_x                      
_atom_site_fract_y                      
_atom_site_fract_z                      
_atom_site_occupancy                    
   Y    Y  -0.4023  -0.0949  -0.0182   1.0000
   Y    Y  -0.4145   0.2225   0.3163   1.0000
   Y    Y   0.0676  -0.2654   0.3489   1.0000
   Y    Y   0.0641   0.0678  -0.3253   1.0000
   Y    Y   0.0623   0.4027  -0.0252   1.0000
  Al   Al  -0.4321  -0.4272  -0.3358   1.0000
   H    H   0.3614   0.3358  -0.3502   1.0000
   H    H   0.3441  -0.0517   0.3533   1.0000
   H    H   0.3371  -0.3532  -0.0211   1.0000
   H    H  -0.2017   0.4889   0.3639   1.0000
