data_findsym-STRUC-288
# This file was generated by FINDSYM    
# Harold T. Stokes, Branton J. Campbell, Dorian M. Hatch
# Brigham Young University, Provo, Utah, USA
                                        
data_findsym-output                     
                                        
_symmetry_space_group_name_H-M 'C 1 2/m 1'
_symmetry_Int_Tables_number 12          
                                        
_cell_length_a       8.28818            
_cell_length_b       3.73100            
_cell_length_c       5.87476            
_cell_angle_alpha   90.00000            
_cell_angle_beta   136.35997            
_cell_angle_gamma   90.00000            
                                        
loop_                                   
_space_group_symop_operation_xyz        
x,y,z                                   
-x,y,-z                                 
-x,-y,-z                                
x,-y,z                                  
x+1/2,y+1/2,z                           
-x+1/2,y+1/2,-z                         
-x+1/2,-y+1/2,-z                        
x+1/2,-y+1/2,z                          
                                        
loop_                                   
_atom_site_label                        
_atom_site_type_symbol                  
_atom_site_fract_x                      
_atom_site_fract_y                      
_atom_site_fract_z                      
_atom_site_occupancy                    
   Y    Y   0.2738   0.0000   0.3785   1.0000
   Y    Y   0.0000   0.5000   0.0000   1.0000
   Y    Y  -0.0907   0.0000   0.2212   1.0000
   H    H   0.4042   0.0000   0.2150   1.0000
