data_findsym-STRUC-136
# This file was generated by FINDSYM    
# Harold T. Stokes, Branton J. Campbell, Dorian M. Hatch
# Brigham Young University, Provo, Utah, USA
                                        
data_findsym-output                     
                                        
_symmetry_space_group_name_H-M 'C 1 m 1'
_symmetry_Int_Tables_number 8           
                                        
_cell_length_a      14.84555            
_cell_length_b       3.32200            
_cell_length_c       2.60900            
_cell_angle_alpha   90.00000            
_cell_angle_beta    84.68433            
_cell_angle_gamma   90.00000            
                                        
loop_                                   
_space_group_symop_operation_xyz        
x,y,z                                   
x,-y,z                                  
x+1/2,y+1/2,z                           
x+1/2,-y+1/2,z                          
                                        
loop_                                   
_atom_site_label                        
_atom_site_type_symbol                  
_atom_site_fract_x                      
_atom_site_fract_y                      
_atom_site_fract_z                      
_atom_site_occupancy                    
   Y    Y  -0.4478   0.0000  -0.1008   1.0000
  Al   Al   0.3557   0.0000   0.0043   1.0000
  Al   Al  -0.2269   0.0000  -0.4458   1.0000
  Al   Al  -0.0696   0.0000   0.4641   1.0000
  Al   Al   0.1777   0.0000   0.0440   1.0000
   H    H   0.4581   0.0000   0.4485   1.0000
   H    H   0.2652   0.2474   0.0651   1.0000
   H    H  -0.3704   0.1993   0.3819   1.0000
   H    H  -0.3232   0.0000  -0.1608   1.0000
   H    H  -0.0542   0.2475  -0.0456   1.0000
   H    H   0.2381   0.0000  -0.4600   1.0000
   H    H  -0.1465   0.0000   0.0130   1.0000
   H    H   0.0344   0.0000   0.3822   1.0000
   H    H   0.0935   0.0000  -0.2313   1.0000
