data_findsym-STRUC-188
# This file was generated by FINDSYM    
# Harold T. Stokes, Branton J. Campbell, Dorian M. Hatch
# Brigham Young University, Provo, Utah, USA
                                        
data_findsym-output                     
                                        
_symmetry_space_group_name_H-M 'P 1'    
_symmetry_Int_Tables_number 1           
                                        
_cell_length_a       3.90600            
_cell_length_b       3.20400            
_cell_length_c       2.52800            
_cell_angle_alpha   97.57800            
_cell_angle_beta    72.58900            
_cell_angle_gamma   90.45000            
                                        
loop_                                   
_space_group_symop_operation_xyz        
x,y,z                                   
                                        
loop_                                   
_atom_site_label                        
_atom_site_type_symbol                  
_atom_site_fract_x                      
_atom_site_fract_y                      
_atom_site_fract_z                      
_atom_site_occupancy                    
  Al   Al  -0.4433  -0.4464   0.1951   1.0000
  Al   Al   0.0426   0.0380   0.4380   1.0000
   H    H  -0.0429   0.3507   0.0061   1.0000
   H    H   0.1294  -0.4698   0.4428   1.0000
   H    H   0.4477   0.0432  -0.4559   1.0000
   H    H   0.4881   0.0565   0.1159   1.0000
   H    H   0.2935   0.2433  -0.1419   1.0000
   H    H  -0.3361  -0.1421  -0.3349   1.0000
   H    H  -0.2938   0.3384  -0.4098   1.0000
   H    H   0.2844  -0.3039  -0.1244   1.0000
   H    H  -0.0749  -0.2272  -0.0296   1.0000
