data_findsym-STRUC-312
# This file was generated by FINDSYM    
# Harold T. Stokes, Branton J. Campbell, Dorian M. Hatch
# Brigham Young University, Provo, Utah, USA
                                        
data_findsym-output                     
                                        
_symmetry_space_group_name_H-M 'P 1'    
_symmetry_Int_Tables_number 1           
                                        
_cell_length_a       3.74900            
_cell_length_b       3.79000            
_cell_length_c       3.60700            
_cell_angle_alpha   65.92800            
_cell_angle_beta   110.46000            
_cell_angle_gamma  111.93600            
                                        
loop_                                   
_space_group_symop_operation_xyz        
x,y,z                                   
                                        
loop_                                   
_atom_site_label                        
_atom_site_type_symbol                  
_atom_site_fract_x                      
_atom_site_fract_y                      
_atom_site_fract_z                      
_atom_site_occupancy                    
  Al   Al   0.3209  -0.3419  -0.3286   1.0000
  Al   Al   0.0004  -0.0211   0.0021   1.0000
   H    H  -0.0971   0.3859  -0.2008   1.0000
   H    H   0.0379  -0.0440   0.4539   1.0000
   H    H   0.0123  -0.3663  -0.1054   1.0000
   H    H  -0.4413  -0.1736   0.0367   1.0000
   H    H  -0.2939   0.2096   0.0234   1.0000
   H    H  -0.1716  -0.4377   0.3776   1.0000
   H    H   0.1750   0.3513   0.2861   1.0000
   H    H  -0.4233   0.3177   0.0730   1.0000
   H    H  -0.2791   0.0639   0.4853   1.0000
   H    H  -0.0392   0.4515   0.2919   1.0000
   H    H  -0.2501  -0.2960  -0.3362   1.0000
   H    H   0.3759   0.3627   0.2001   1.0000
   H    H   0.3826  -0.1536   0.2210   1.0000
   H    H  -0.4041   0.1529  -0.4298   1.0000
   H    H  -0.4029  -0.4722  -0.4885   1.0000
   H    H   0.2800   0.2059  -0.3012   1.0000
