data_findsym-STRUC-210
# This file was generated by FINDSYM    
# Harold T. Stokes, Branton J. Campbell, Dorian M. Hatch
# Brigham Young University, Provo, Utah, USA
                                        
data_findsym-output                     
                                        
_symmetry_space_group_name_H-M 'P 1'    
_symmetry_Int_Tables_number 1           
                                        
_cell_length_a       4.72200            
_cell_length_b       4.22500            
_cell_length_c       4.44400            
_cell_angle_alpha   93.29600            
_cell_angle_beta    70.04400            
_cell_angle_gamma  116.46600            
                                        
loop_                                   
_space_group_symop_operation_xyz        
x,y,z                                   
                                        
loop_                                   
_atom_site_label                        
_atom_site_type_symbol                  
_atom_site_fract_x                      
_atom_site_fract_y                      
_atom_site_fract_z                      
_atom_site_occupancy                    
   Y    Y  -0.1490  -0.2333   0.3158   1.0000
   Y    Y   0.0456   0.2290  -0.2221   1.0000
  Al   Al   0.4998   0.1409   0.2604   1.0000
  Al   Al   0.4021  -0.0812  -0.2101   1.0000
  Al   Al   0.2608  -0.4597   0.2285   1.0000
   H    H   0.2481   0.1404   0.0290   1.0000
   H    H  -0.1066   0.3398   0.1925   1.0000
   H    H  -0.2767  -0.2462  -0.2321   1.0000
   H    H   0.3876  -0.3525  -0.4797   1.0000
   H    H  -0.3587  -0.1149   0.0820   1.0000
   H    H  -0.3412   0.2688  -0.1226   1.0000
   H    H   0.1656   0.1823   0.3697   1.0000
   H    H  -0.1423  -0.3283  -0.2582   1.0000
   H    H   0.0148  -0.3390  -0.1035   1.0000
   H    H   0.1882  -0.1096  -0.4500   1.0000
   H    H  -0.4820   0.3300  -0.4138   1.0000
   H    H  -0.0671   0.4834  -0.4533   1.0000
   H    H   0.4193  -0.4565  -0.1459   1.0000
   H    H  -0.2572   0.1065  -0.4868   1.0000
   H    H  -0.4073  -0.4941   0.0815   1.0000
