data_findsym-STRUC-280
# This file was generated by FINDSYM    
# Harold T. Stokes, Branton J. Campbell, Dorian M. Hatch
# Brigham Young University, Provo, Utah, USA
                                        
data_findsym-output                     
                                        
_symmetry_space_group_name_H-M 'P -1'   
_symmetry_Int_Tables_number 2           
                                        
_cell_length_a       4.34800            
_cell_length_b       4.53100            
_cell_length_c       6.71500            
_cell_angle_alpha  106.40100            
_cell_angle_beta   107.98800            
_cell_angle_gamma   95.13000            
                                        
loop_                                   
_space_group_symop_operation_xyz        
x,y,z                                   
-x,-y,-z                                
                                        
loop_                                   
_atom_site_label                        
_atom_site_type_symbol                  
_atom_site_fract_x                      
_atom_site_fract_y                      
_atom_site_fract_z                      
_atom_site_occupancy                    
   Y    Y  -0.2335   0.1186  -0.4816   1.0000
   Y    Y   0.4371   0.4856  -0.3135   1.0000
   Y    Y   0.1561   0.3333  -0.0899   1.0000
   Y    Y  -0.3998   0.0835  -0.1249   1.0000
   Y    Y  -0.0369  -0.2834  -0.2908   1.0000
   H    H   0.0000   0.0000   0.0000   1.0000
