data_findsym-STRUC-302
# This file was generated by FINDSYM    
# Harold T. Stokes, Branton J. Campbell, Dorian M. Hatch
# Brigham Young University, Provo, Utah, USA
                                        
data_findsym-output                     
                                        
_symmetry_space_group_name_H-M 'P 1'    
_symmetry_Int_Tables_number 1           
                                        
_cell_length_a       3.04000            
_cell_length_b       3.21600            
_cell_length_c       5.81000            
_cell_angle_alpha   86.57500            
_cell_angle_beta    85.87300            
_cell_angle_gamma   89.79600            
                                        
loop_                                   
_space_group_symop_operation_xyz        
x,y,z                                   
                                        
loop_                                   
_atom_site_label                        
_atom_site_type_symbol                  
_atom_site_fract_x                      
_atom_site_fract_y                      
_atom_site_fract_z                      
_atom_site_occupancy                    
   Y    Y   0.2374  -0.2433   0.0008   1.0000
  Al   Al  -0.3137   0.2570  -0.3099   1.0000
  Al   Al   0.1823   0.1984   0.3700   1.0000
   H    H  -0.0324   0.2517   0.1196   1.0000
   H    H  -0.2704  -0.3985   0.4576   1.0000
   H    H   0.3184   0.4709  -0.4429   1.0000
   H    H   0.2033   0.2762  -0.1749   1.0000
   H    H   0.4600   0.2446   0.1254   1.0000
   H    H  -0.2368  -0.4520  -0.1179   1.0000
   H    H  -0.2645   0.3369   0.0224   1.0000
   H    H   0.0612  -0.0662  -0.3766   1.0000
   H    H  -0.3386   0.0166   0.4447   1.0000
   H    H  -0.2525   0.0100  -0.0861   1.0000
   H    H  -0.2969  -0.3079   0.2237   1.0000
   H    H  -0.2832  -0.0516   0.1926   1.0000
   H    H  -0.3840  -0.2399  -0.2793   1.0000
   H    H  -0.0577  -0.3702  -0.4524   1.0000
   H    H  -0.3085   0.4172   0.2961   1.0000
   H    H   0.2090  -0.2752   0.3227   1.0000
   H    H   0.3995  -0.1764  -0.3538   1.0000
