data_findsym-STRUC-365
# This file was generated by FINDSYM    
# Harold T. Stokes, Branton J. Campbell, Dorian M. Hatch
# Brigham Young University, Provo, Utah, USA
                                        
data_findsym-output                     
                                        
_symmetry_space_group_name_H-M 'P 1 2/m 1'
_symmetry_Int_Tables_number 10          
                                        
_cell_length_a       3.18000            
_cell_length_b       2.43100            
_cell_length_c       4.97300            
_cell_angle_alpha   90.00000            
_cell_angle_beta   106.90300            
_cell_angle_gamma   90.00000            
                                        
loop_                                   
_space_group_symop_operation_xyz        
x,y,z                                   
-x,y,-z                                 
-x,-y,-z                                
x,-y,z                                  
                                        
loop_                                   
_atom_site_label                        
_atom_site_type_symbol                  
_atom_site_fract_x                      
_atom_site_fract_y                      
_atom_site_fract_z                      
_atom_site_occupancy                    
  Al   Al   0.0000   0.0000   0.5000   1.0000
  Al   Al   0.3276   0.5000   0.1688   1.0000
   H    H  -0.2909   0.5000  -0.4937   1.0000
   H    H  -0.4589   0.0000  -0.3577   1.0000
   H    H  -0.1597   0.5000   0.2003   1.0000
   H    H   0.5000   0.0000   0.0000   1.0000
   H    H   0.0000   0.0000   0.0000   1.0000
