data_findsym-STRUC-352
# This file was generated by FINDSYM    
# Harold T. Stokes, Branton J. Campbell, Dorian M. Hatch
# Brigham Young University, Provo, Utah, USA
                                        
data_findsym-output                     
                                        
_symmetry_space_group_name_H-M 'P 1'    
_symmetry_Int_Tables_number 1           
                                        
_cell_length_a       3.35900            
_cell_length_b       3.34100            
_cell_length_c       3.02300            
_cell_angle_alpha   94.36200            
_cell_angle_beta    86.05500            
_cell_angle_gamma   90.23100            
                                        
loop_                                   
_space_group_symop_operation_xyz        
x,y,z                                   
                                        
loop_                                   
_atom_site_label                        
_atom_site_type_symbol                  
_atom_site_fract_x                      
_atom_site_fract_y                      
_atom_site_fract_z                      
_atom_site_occupancy                    
   Y    Y   0.4779   0.4507   0.4693   1.0000
   H    H  -0.0277   0.3003  -0.3865   1.0000
   H    H   0.0097  -0.2467  -0.2721   1.0000
   H    H  -0.0161   0.1458   0.3717   1.0000
   H    H   0.0040  -0.2986   0.2485   1.0000
   H    H   0.1911  -0.0700  -0.2598   1.0000
   H    H  -0.3325   0.0132  -0.2450   1.0000
   H    H  -0.2781  -0.0600   0.4119   1.0000
   H    H   0.2544  -0.0806   0.2403   1.0000
   H    H   0.0877   0.4607   0.0407   1.0000
   H    H  -0.2785  -0.3144  -0.0259   1.0000
   H    H  -0.2578   0.2106  -0.0614   1.0000
   H    H   0.4804  -0.1899   0.0304   1.0000
   H    H   0.2140   0.2250  -0.0246   1.0000
