data_findsym-STRUC-356
# This file was generated by FINDSYM    
# Harold T. Stokes, Branton J. Campbell, Dorian M. Hatch
# Brigham Young University, Provo, Utah, USA
                                        
data_findsym-output                     
                                        
_symmetry_space_group_name_H-M 'C 1 2/m 1'
_symmetry_Int_Tables_number 12          
                                        
_cell_length_a       6.74990            
_cell_length_b       4.37181            
_cell_length_c       2.78700            
_cell_angle_alpha   90.00000            
_cell_angle_beta    73.17825            
_cell_angle_gamma   90.00000            
                                        
loop_                                   
_space_group_symop_operation_xyz        
x,y,z                                   
-x,y,-z                                 
-x,-y,-z                                
x,-y,z                                  
x+1/2,y+1/2,z                           
-x+1/2,y+1/2,-z                         
-x+1/2,-y+1/2,-z                        
x+1/2,-y+1/2,z                          
                                        
loop_                                   
_atom_site_label                        
_atom_site_type_symbol                  
_atom_site_fract_x                      
_atom_site_fract_y                      
_atom_site_fract_z                      
_atom_site_occupancy                    
  Al   Al   0.1590   0.0000  -0.3193   1.0000
  Al   Al   0.0000   0.5000   0.0000   1.0000
   H    H   0.2215   0.3234  -0.1836   1.0000
   H    H  -0.4447   0.3217   0.2541   1.0000
   H    H   0.3857   0.0000  -0.3886   1.0000
