data_findsym-STRUC-199
# This file was generated by FINDSYM    
# Harold T. Stokes, Branton J. Campbell, Dorian M. Hatch
# Brigham Young University, Provo, Utah, USA
                                        
data_findsym-output                     
                                        
_symmetry_space_group_name_H-M 'P -3 2/m 1'
_symmetry_Int_Tables_number 164         
                                        
_cell_length_a       2.35672            
_cell_length_b       2.35672            
_cell_length_c       3.76600            
_cell_angle_alpha   90.00000            
_cell_angle_beta    90.00000            
_cell_angle_gamma  120.00000            
                                        
loop_                                   
_space_group_symop_operation_xyz        
x,y,z                                   
-y,x-y,z                                
-x+y,-x,z                               
x-y,-y,-z                               
y,x,-z                                  
-x,-x+y,-z                              
-x,-y,-z                                
y,-x+y,-z                               
x-y,x,-z                                
-x+y,y,z                                
-y,-x,z                                 
x,x-y,z                                 
                                        
loop_                                   
_atom_site_label                        
_atom_site_type_symbol                  
_atom_site_fract_x                      
_atom_site_fract_y                      
_atom_site_fract_z                      
_atom_site_occupancy                    
  Al   Al   0.3333   0.6667   0.2606   1.0000
   H    H   0.0000   0.0000   0.0000   1.0000
