data_findsym-STRUC-240
# This file was generated by FINDSYM    
# Harold T. Stokes, Branton J. Campbell, Dorian M. Hatch
# Brigham Young University, Provo, Utah, USA
                                        
data_findsym-output                     
                                        
_symmetry_space_group_name_H-M 'P 1 m 1'
_symmetry_Int_Tables_number 6           
                                        
_cell_length_a       4.62300            
_cell_length_b       2.57900            
_cell_length_c       4.63100            
_cell_angle_alpha   90.00000            
_cell_angle_beta   119.63300            
_cell_angle_gamma   90.00000            
                                        
loop_                                   
_space_group_symop_operation_xyz        
x,y,z                                   
x,-y,z                                  
                                        
loop_                                   
_atom_site_label                        
_atom_site_type_symbol                  
_atom_site_fract_x                      
_atom_site_fract_y                      
_atom_site_fract_z                      
_atom_site_occupancy                    
   Y    Y   0.0004   0.5000   0.0177   1.0000
  Al   Al  -0.3114   0.0000   0.3502   1.0000
  Al   Al   0.3128   0.0000  -0.3219   1.0000
   H    H   0.2510   0.5000   0.4654   1.0000
   H    H   0.3486   0.5000  -0.0735   1.0000
   H    H  -0.4537   0.5000  -0.2073   1.0000
   H    H  -0.2803   0.5000   0.1866   1.0000
   H    H   0.4611   0.5000   0.3289   1.0000
   H    H  -0.3508   0.5000  -0.4352   1.0000
   H    H   0.3348   0.0000   0.3342   1.0000
   H    H  -0.0078   0.5000  -0.4084   1.0000
   H    H  -0.3249   0.0000  -0.0065   1.0000
   H    H  -0.3308   0.0000  -0.3198   1.0000
   H    H   0.0060   0.0000   0.3204   1.0000
   H    H   0.3220   0.0000   0.0234   1.0000
   H    H  -0.0044   0.0000  -0.2802   1.0000
