data_findsym-STRUC-278
# This file was generated by FINDSYM    
# Harold T. Stokes, Branton J. Campbell, Dorian M. Hatch
# Brigham Young University, Provo, Utah, USA
                                        
data_findsym-output                     
                                        
_symmetry_space_group_name_H-M 'P 1 m 1'
_symmetry_Int_Tables_number 6           
                                        
_cell_length_a       3.43000            
_cell_length_b       2.45400            
_cell_length_c       4.98100            
_cell_angle_alpha   90.00000            
_cell_angle_beta    94.01000            
_cell_angle_gamma   90.00000            
                                        
loop_                                   
_space_group_symop_operation_xyz        
x,y,z                                   
x,-y,z                                  
                                        
loop_                                   
_atom_site_label                        
_atom_site_type_symbol                  
_atom_site_fract_x                      
_atom_site_fract_y                      
_atom_site_fract_z                      
_atom_site_occupancy                    
  Al   Al   0.3125   0.5000   0.0799   1.0000
  Al   Al  -0.1620   0.0000   0.2993   1.0000
  Al   Al  -0.2200   0.0000  -0.1358   1.0000
  Al   Al   0.3266   0.5000  -0.4337   1.0000
   H    H  -0.1993   0.5000   0.4863   1.0000
   H    H   0.0504   0.0000  -0.4032   1.0000
   H    H   0.3105   0.0000  -0.1355   1.0000
   H    H  -0.3963   0.0000  -0.4229   1.0000
   H    H   0.0245   0.5000  -0.2028   1.0000
   H    H   0.3375   0.0000   0.3108   1.0000
