data_findsym-STRUC-6
# This file was generated by FINDSYM    
# Harold T. Stokes, Branton J. Campbell, Dorian M. Hatch
# Brigham Young University, Provo, Utah, USA
                                        
data_findsym-output                     
                                        
_symmetry_space_group_name_H-M 'P 1'    
_symmetry_Int_Tables_number 1           
                                        
_cell_length_a       7.02700            
_cell_length_b       3.17200            
_cell_length_c       3.13400            
_cell_angle_alpha  111.15200            
_cell_angle_beta    83.12800            
_cell_angle_gamma   85.85600            
                                        
loop_                                   
_space_group_symop_operation_xyz        
x,y,z                                   
                                        
loop_                                   
_atom_site_label                        
_atom_site_type_symbol                  
_atom_site_fract_x                      
_atom_site_fract_y                      
_atom_site_fract_z                      
_atom_site_occupancy                    
   Y    Y  -0.1390  -0.2827  -0.1807   1.0000
   Y    Y   0.2523  -0.0874   0.0574   1.0000
   Y    Y  -0.4395   0.3137   0.4365   1.0000
   H    H   0.0952  -0.0486  -0.3654   1.0000
   H    H   0.1155   0.3298  -0.3549   1.0000
   H    H   0.0968   0.4433   0.0652   1.0000
   H    H  -0.0167   0.2269   0.0768   1.0000
   H    H   0.0317  -0.2768   0.2623   1.0000
   H    H   0.1336  -0.4776  -0.4787   1.0000
   H    H  -0.4563  -0.3166   0.0821   1.0000
   H    H   0.3082   0.2534  -0.3185   1.0000
   H    H   0.3075  -0.4645   0.3847   1.0000
   H    H   0.4157  -0.1470   0.4914   1.0000
   H    H   0.4114   0.3565  -0.0117   1.0000
   H    H  -0.4601  -0.0442  -0.1985   1.0000
   H    H  -0.2977  -0.2326   0.3818   1.0000
   H    H  -0.2949   0.2667  -0.1174   1.0000
   H    H  -0.0402   0.0521   0.3942   1.0000
   H    H  -0.1676   0.3599   0.1865   1.0000
   H    H  -0.1810   0.1056  -0.4993   1.0000
