
#======================================================================
# CRYSTAL DATA
#----------------------------------------------------------------------
data_VESTA_phase_1

_chemical_name_common                  'LaH10'
_cell_length_a                         4.812400
_cell_length_b                         4.812400
_cell_length_c                         4.812400
_cell_angle_alpha                      90.000000
_cell_angle_beta                       90.000000
_cell_angle_gamma                      90.000000
_cell_volume                           111.451295
_space_group_name_H-M_alt              'P 1'
_space_group_IT_number                 1

loop_
_space_group_symop_operation_xyz
   'x, y, z'

loop_
   _atom_site_label
   _atom_site_occupancy
   _atom_site_fract_x
   _atom_site_fract_y
   _atom_site_fract_z
   _atom_site_adp_type
   _atom_site_U_iso_or_equiv
   _atom_site_type_symbol
   La1        0.5     0.500000     0.000000     0.000000    Uiso  ? La
   La2        0.5     0.000000     0.500000     0.000000    Uiso  ? La
   La3        0.5     0.000000     0.000000     0.500000    Uiso  ? La
   La4        0.5     0.500000     0.500000     0.500000    Uiso  ? La
   Ba1        0.5     0.500000     0.000000     0.000000    Uiso  ? Ba
   Ba2        0.5     0.000000     0.500000     0.000000    Uiso  ? Ba
   Ba3        0.5     0.000000     0.000000     0.500000    Uiso  ? Ba
   Ba4        0.5     0.500000     0.500000     0.500000    Uiso  ? Ba
   H1         1.0     0.250000     0.750000     0.750000    Uiso  ? H
   H2         1.0     0.750000     0.250000     0.250000    Uiso  ? H
   H3         1.0     0.750000     0.250000     0.750000    Uiso  ? H
   H4         1.0     0.250000     0.750000     0.250000    Uiso  ? H
   H5         1.0     0.750000     0.750000     0.250000    Uiso  ? H
   H6         1.0     0.250000     0.250000     0.750000    Uiso  ? H
   H7         1.0     0.250000     0.250000     0.250000    Uiso  ? H
   H8         1.0     0.750000     0.750000     0.750000    Uiso  ? H
   H9         1.0     0.379480     0.379480     0.879480    Uiso  ? H
   H10        1.0     0.620520     0.620520     0.120520    Uiso  ? H
   H11        1.0     0.620520     0.620520     0.879480    Uiso  ? H
   H12        1.0     0.379480     0.379480     0.120520    Uiso  ? H
   H13        1.0     0.620520     0.379480     0.120520    Uiso  ? H
   H14        1.0     0.379480     0.620520     0.879480    Uiso  ? H
   H15        1.0     0.379480     0.620520     0.120520    Uiso  ? H
   H16        1.0     0.620520     0.379480     0.879480    Uiso  ? H
   H17        1.0     0.879480     0.379480     0.379480    Uiso  ? H
   H18        1.0     0.120520     0.620520     0.620520    Uiso  ? H
   H19        1.0     0.879480     0.620520     0.620520    Uiso  ? H
   H20        1.0     0.120520     0.379480     0.379480    Uiso  ? H
   H21        1.0     0.120520     0.620520     0.379480    Uiso  ? H
   H22        1.0     0.879480     0.379480     0.620520    Uiso  ? H
   H23        1.0     0.120520     0.379480     0.620520    Uiso  ? H
   H24        1.0     0.879480     0.620520     0.379480    Uiso  ? H
   H25        1.0     0.379480     0.879480     0.379480    Uiso  ? H
   H26        1.0     0.620520     0.120520     0.620520    Uiso  ? H
   H27        1.0     0.620520     0.879480     0.620520    Uiso  ? H
   H28        1.0     0.379480     0.120520     0.379480    Uiso  ? H
   H29        1.0     0.379480     0.120520     0.620520    Uiso  ? H
   H30        1.0     0.620520     0.879480     0.379480    Uiso  ? H
   H31        1.0     0.620520     0.120520     0.379480    Uiso  ? H
   H32        1.0     0.379480     0.879480     0.620520    Uiso  ? H
   H33        1.0     0.879480     0.879480     0.879480    Uiso  ? H
   H34        1.0     0.120520     0.120520     0.120520    Uiso  ? H
   H35        1.0     0.879480     0.120520     0.120520    Uiso  ? H
   H36        1.0     0.120520     0.879480     0.879480    Uiso  ? H
   H37        1.0     0.120520     0.120520     0.879480    Uiso  ? H
   H38        1.0     0.879480     0.879480     0.120520    Uiso  ? H
   H39        1.0     0.120520     0.879480     0.120520    Uiso  ? H
   H40        1.0     0.879480     0.120520     0.879480    Uiso  ? H
